digraph structs
{
  edge [fontname="FreeSans.ttf",fontsize=8,labelfontname="FreeSans.ttf",labelfontsize=8];
  node [fontname="FreeSans.ttf",fontsize=10,shape=record];
rankdir=LR;
  Node1 [label="Data Interface",height=0.2,width=0.4,color="black", fillcolor="white", style="filled",URL="$group__DataInterface.html"];
  Node2 [label="(Private Generic IO)",height=0.2,width=0.4,color="black", fillcolor="white", style="filled",URL="$group__PrivateFileIO.html"];
  Node3 [label="(Private Exodus IO)",height=0.2,width=0.4,color="black", fillcolor="white", style="filled",URL="$group__ExodusFileIO.html"];
  Node4 [label="(Private LS-Dyna IO)",height=0.2,width=0.4,color="black", fillcolor="white", style="filled",URL="$group__LSDynaFileIO.html"];
  Node0 [label="File IO",height=0.2,width=0.4,color="black", fillcolor="grey75", style="filled" fontcolor="black"];
  Node1->Node0 [shape=plaintext, color="midnightblue", dir="back", style="solid"];
  Node0->Node2 [shape=plaintext, color="midnightblue", dir="back", style="solid"];
  Node0->Node3 [shape=plaintext, color="midnightblue", dir="back", style="solid"];
  Node0->Node4 [shape=plaintext, color="midnightblue", dir="back", style="solid"];
}
